cases/case85_v2.m
function mpc = case85_v2

%% MATPOWER Case Format : Version 2
mpc.version = '2';

%%-----  Power Flow Data  -----%%
%% system MVA base
mpc.baseMVA = 1;

%% bus data
%	bus_i	type	Pd	Qd	Gs	Bs	area	Vm	Va	baseKV	zone	Vmax	Vmin
mpc.bus = [
	1	3	0	0	0	0	1	1	0	1	1	1.06	0.94;
	2	1	0	0	0	0	1	0.995675517	0.0419304272	1	1	1.06	0.94;
	3	1	0	0	0	0	1	0.989258872	0.10663001	1	1	1.06	0.94;
	4	1	0.056	0.0571314274	0	0	1	0.981066263	0.190237128	1	1	1.06	0.94;
	5	1	0	0	0	0	1	0.977079644	0.231572995	1	1	1.06	0.94;
	6	1	0.03528	0.0359927993	0	0	1	0.962748409	0.381318535	1	1	1.06	0.94;
	7	1	0	0	0	0	1	0.953936996	0.47595646	1	1	1.06	0.94;
	8	1	0.03528	0.0359927993	0	0	1	0.915785605	0.90435507	1	1	1.06	0.94;
	9	1	0	0	0	0	1	0.913973536	0.925973819	1	1	1.06	0.94;
	10	1	0	0	0	0	1	0.910454525	0.969083238	1	1	1.06	0.94;
	11	1	0.056	0.0571314274	0	0	1	0.90772382	1.00272882	1	1	1.06	0.94;
	12	1	0	0	0	0	1	0.905464761	1.03068831	1	1	1.06	0.94;
	13	1	0	0	0	0	1	0.904481468	1.04293034	1	1	1.06	0.94;
	14	1	0.03528	0.0359927993	0	0	1	0.904183631	1.04666834	1	1	1.06	0.94;
	15	1	0.03528	0.0359927993	0	0	1	0.904005108	1.04890807	1	1	1.06	0.94;
	16	1	0.03528	0.0359927993	0	0	1	0.995372008	0.0493591486	1	1	1.06	0.94;
	17	1	0.112	0.114262855	0	0	1	0.988652322	0.121552417	1	1	1.06	0.94;
	18	1	0.056	0.0571314274	0	0	1	0.97436259	0.299206481	1	1	1.06	0.94;
	19	1	0.056	0.0571314274	0	0	1	0.97268348	0.341204054	1	1	1.06	0.94;
	20	1	0.03528	0.0359927993	0	0	1	0.972100044	0.35579023	1	1	1.06	0.94;
	21	1	0.03528	0.0359927993	0	0	1	0.971399835	0.373323854	1	1	1.06	0.94;
	22	1	0.03528	0.0359927993	0	0	1	0.970738111	0.389928636	1	1	1.06	0.94;
	23	1	0.056	0.0571314274	0	0	1	0.97256046	0.344306434	1	1	1.06	0.94;
	24	1	0.03528	0.0359927993	0	0	1	0.953540806	0.486064665	1	1	1.06	0.94;
	25	1	0.03528	0.0359927993	0	0	1	0.910229728	1.04728154	1	1	1.06	0.94;
	26	1	0.056	0.0571314274	0	0	1	0.905956679	1.15850828	1	1	1.06	0.94;
	27	1	0	0	0	0	1	0.900350363	1.3059199	1	1	1.06	0.94;
	28	1	0.056	0.0571314274	0	0	1	0.897749138	1.3748695	1	1	1.06	0.94;
	29	1	0	0	0	0	1	0.892950559	1.50296158	1	1	1.06	0.94;
	30	1	0.03528	0.0359927993	0	0	1	0.888558822	1.62131529	1	1	1.06	0.94;
	31	1	0.03528	0.0359927993	0	0	1	0.886491742	1.67741296	1	1	1.06	0.94;
	32	1	0	0	0	0	1	0.885200965	1.71271224	1	1	1.06	0.94;
	33	1	0.014	0.0142828569	0	0	1	0.884166389	1.74101716	1	1	1.06	0.94;
	34	1	0	0	0	0	1	0.879655745	1.86431517	1	1	1.06	0.94;
	35	1	0	0	0	0	1	0.877175455	1.93271224	1	1	1.06	0.94;
	36	1	0.03528	0.0359927993	0	0	1	0.877089516	1.93511546	1	1	1.06	0.94;
	37	1	0.056	0.0571314274	0	0	1	0.905691947	1.16562957	1	1	1.06	0.94;
	38	1	0.056	0.0571314274	0	0	1	0.899616492	1.32576732	1	1	1.06	0.94;
	39	1	0.056	0.0571314274	0	0	1	0.892547872	1.51397534	1	1	1.06	0.94;
	40	1	0.03528	0.0359927993	0	0	1	0.884559683	1.73032611	1	1	1.06	0.94;
	41	1	0	0	0	0	1	0.883618027	1.75624115	1	1	1.06	0.94;
	42	1	0.03528	0.0359927993	0	0	1	0.883489883	1.75978307	1	1	1.06	0.94;
	43	1	0.03528	0.0359927993	0	0	1	0.883404207	1.76213066	1	1	1.06	0.94;
	44	1	0.03528	0.0359927993	0	0	1	0.878044385	1.90885591	1	1	1.06	0.94;
	45	1	0.03528	0.0359927993	0	0	1	0.877010542	1.93752754	1	1	1.06	0.94;
	46	1	0.03528	0.0359927993	0	0	1	0.876407924	1.95426803	1	1	1.06	0.94;
	47	1	0.014	0.0142828569	0	0	1	0.87630539	1.95712544	1	1	1.06	0.94;
	48	1	0	0	0	0	1	0.874997574	1.99307469	1	1	1.06	0.94;
	49	1	0	0	0	0	1	0.874737779	2.00035189	1	1	1.06	0.94;
	50	1	0.03628	0.0370130033	0	0	1	0.874285732	2.01294216	1	1	1.06	0.94;
	51	1	0.056	0.0571314274	0	0	1	0.873942658	2.02249266	1	1	1.06	0.94;
	52	1	0	0	0	0	1	0.87228107	2.06860344	1	1	1.06	0.94;
	53	1	0.03528	0.0359927993	0	0	1	0.871720228	2.0842463	1	1	1.06	0.94;
	54	1	0.056	0.0571314274	0	0	1	0.871307724	2.09580332	1	1	1.06	0.94;
	55	1	0.056	0.0571314274	0	0	1	0.871868831	2.0801456	1	1	1.06	0.94;
	56	1	0.014	0.0142828569	0	0	1	0.874635049	2.00322022	1	1	1.06	0.94;
	57	1	0.056	0.0571314274	0	0	1	0.911479607	0.991252209	1	1	1.06	0.94;
	58	1	0	0	0	0	1	0.904589635	1.17277349	1	1	1.06	0.94;
	59	1	0.056	0.0571314274	0	0	1	0.904457351	1.17636059	1	1	1.06	0.94;
	60	1	0.056	0.0571314274	0	0	1	0.900402457	1.28475036	1	1	1.06	0.94;
	61	1	0.056	0.0571314274	0	0	1	0.899335445	1.3136138	1	1	1.06	0.94;
	62	1	0.056	0.0571314274	0	0	1	0.89860127	1.33353888	1	1	1.06	0.94;
	63	1	0.014	0.0142828569	0	0	1	0.899408364	1.31153355	1	1	1.06	0.94;
	64	1	0	0	0	0	1	0.895559335	1.41512544	1	1	1.06	0.94;
	65	1	0	0	0	0	1	0.895392281	1.41970038	1	1	1.06	0.94;
	66	1	0.056	0.0571314274	0	0	1	0.895258638	1.42336156	1	1	1.06	0.94;
	67	1	0	0	0	0	1	0.89357269	1.46883508	1	1	1.06	0.94;
	68	1	0	0	0	0	1	0.890695089	1.54695137	1	1	1.06	0.94;
	69	1	0.056	0.0571314274	0	0	1	0.888564114	1.60520272	1	1	1.06	0.94;
	70	1	0	0	0	0	1	0.888013498	1.62027716	1	1	1.06	0.94;
	71	1	0.03528	0.0359927993	0	0	1	0.88775844	1.62729204	1	1	1.06	0.94;
	72	1	0.056	0.0571314274	0	0	1	0.893438774	1.47251119	1	1	1.06	0.94;
	73	1	0	0	0	0	1	0.889264953	1.58607366	1	1	1.06	0.94;
	74	1	0.056	0.0571314274	0	0	1	0.889062824	1.59162504	1	1	1.06	0.94;
	75	1	0.03528	0.0359927993	0	0	1	0.888796998	1.59888752	1	1	1.06	0.94;
	76	1	0.056	0.0571314274	0	0	1	0.88760857	1.63141378	1	1	1.06	0.94;
	77	1	0.014	0.0142828569	0	0	1	0.895375644	1.4201621	1	1	1.06	0.94;
	78	1	0.056	0.0571314274	0	0	1	0.909993555	0.981433316	1	1	1.06	0.94;
	79	1	0.03528	0.0359927993	0	0	1	0.89331922	1.47576293	1	1	1.06	0.94;
	80	1	0.056	0.0571314274	0	0	1	0.903935594	1.07180896	1	1	1.06	0.94;
	81	1	0	0	0	0	1	0.903436391	1.08526042	1	1	1.06	0.94;
	82	1	0.056	0.0571314274	0	0	1	0.903370431	1.08707466	1	1	1.06	0.94;
	83	1	0.03528	0.0359927993	0	0	1	0.902735132	1.10417483	1	1	1.06	0.94;
	84	1	0.014	0.0142828569	0	0	1	0.902552271	1.10910748	1	1	1.06	0.94;
	85	1	0.03528	0.0359927993	0	0	1	0.904105466	1.05305387	1	1	1.06	0.94;
];

%% generator data
%	bus	Pg	Qg	Qmax	Qmin	Vg	mBase	status	Pmax	Pmin	Pc1	Pc2	Qc1min	Qc1max	Qc2min	Qc2max	ramp_agc	ramp_10	ramp_30	ramp_q	apf
mpc.gen = [
	1	2.886416	2.82082372	2.8	-5000	1	1	1	5000	0	0	0	0	0	0	0	0	0	0	0	0;
];

%% branch data
%	fbus	tbus	r	x	b	rateA	rateB	rateC	ratio	angle	status	angmin	angmax	Pf	Qf	Pt	Qt
mpc.branch = [
	1	2	0.000892561983	0.000619834711	0	9900	0	0	0	0	1	-360	360	2.8864	2.8208	-2.8719	-2.8107;
	2	3	0.00134710744	0.000925619835	0	9900	0	0	0	0	1	-360	360	2.8366	2.7747	-2.8152	-2.7600;
	3	4	0.00179338843	0.00123140496	0	9900	0	0	0	0	1	-360	360	2.7031	2.6457	-2.6769	-2.6277;
	4	5	0.000892561983	0.000611570248	0	9900	0	0	0	0	1	-360	360	2.6209	2.5706	-2.6084	-2.5620;
	5	6	0.00359504132	0.00246280992	0	9900	0	0	0	0	1	-360	360	2.3327	2.2819	-2.2926	-2.2544;
	6	7	0.00224793388	0.00153719008	0	9900	0	0	0	0	1	-360	360	2.2573	2.2184	-2.2330	-2.2018;
	7	8	0.00989256198	0.0067768595	0	9900	0	0	0	0	1	-360	360	2.1977	2.1658	-2.0942	-2.0949;
	8	9	0.000892561983	0.000611570248	0	9900	0	0	0	0	1	-360	360	1.1003	1.1077	-1.0977	-1.1060;
	9	10	0.00494214876	0.00338842975	0	9900	0	0	0	0	1	-360	360	0.3836	0.3897	-0.3819	-0.3885;
	10	11	0.00449586777	0.00308264463	0	9900	0	0	0	0	1	-360	360	0.3258	0.3314	-0.3247	-0.3306;
	11	12	0.00449586777	0.00308264463	0	9900	0	0	0	0	1	-360	360	0.2687	0.2734	-0.2679	-0.2729;
	12	13	0.00494214876	0.00338842975	0	9900	0	0	0	0	1	-360	360	0.1060	0.1081	-0.1059	-0.1080;
	13	14	0.00224793388	0.00153719008	0	9900	0	0	0	0	1	-360	360	0.0706	0.0720	-0.0706	-0.0720;
	14	15	0.00269421488	0.00184297521	0	9900	0	0	0	0	1	-360	360	0.0353	0.0360	-0.0353	-0.0360;
	2	16	0.00601652893	0.00249586777	0	9900	0	0	0	0	1	-360	360	0.0353	0.0360	-0.0353	-0.0360;
	3	17	0.00376033058	0.00156198347	0	9900	0	0	0	0	1	-360	360	0.1121	0.1143	-0.1120	-0.1143;
	5	18	0.0067768595	0.00280991736	0	9900	0	0	0	0	1	-360	360	0.2757	0.2801	-0.2746	-0.2797;
	18	19	0.00526446281	0.00218181818	0	9900	0	0	0	0	1	-360	360	0.2186	0.2226	-0.2180	-0.2223;
	19	20	0.00376033058	0.00156198347	0	9900	0	0	0	0	1	-360	360	0.1060	0.1081	-0.1059	-0.1080;
	20	21	0.00676859504	0.00280991736	0	9900	0	0	0	0	1	-360	360	0.0707	0.0720	-0.0706	-0.0720;
	21	22	0.0127933884	0.00530578512	0	9900	0	0	0	0	1	-360	360	0.0353	0.0360	-0.0353	-0.0360;
	19	23	0.00150413223	0.000619834711	0	9900	0	0	0	0	1	-360	360	0.0560	0.0571	-0.0560	-0.0571;
	7	24	0.00752066116	0.00312396694	0	9900	0	0	0	0	1	-360	360	0.0353	0.0360	-0.0353	-0.0360;
	8	25	0.00376033058	0.00156198347	0	9900	0	0	0	0	1	-360	360	0.9587	0.9512	-0.9505	-0.9478;
	25	26	0.00300826446	0.00124793388	0	9900	0	0	0	0	1	-360	360	0.9152	0.9118	-0.9091	-0.9093;
	26	27	0.00451239669	0.0018677686	0	9900	0	0	0	0	1	-360	360	0.7971	0.7950	-0.7901	-0.7921;
	27	28	0.00225619835	0.000933884298	0	9900	0	0	0	0	1	-360	360	0.7341	0.7350	-0.7311	-0.7337;
	28	29	0.00451239669	0.0018677686	0	9900	0	0	0	0	1	-360	360	0.6751	0.6766	-0.6700	-0.6745;
	29	30	0.00451239669	0.0018677686	0	9900	0	0	0	0	1	-360	360	0.6139	0.6173	-0.6096	-0.6156;
	30	31	0.00225619835	0.000933884298	0	9900	0	0	0	0	1	-360	360	0.5744	0.5796	-0.5725	-0.5788;
	31	32	0.00150413223	0.000619834711	0	9900	0	0	0	0	1	-360	360	0.5372	0.5428	-0.5361	-0.5423;
	32	33	0.00150413223	0.000619834711	0	9900	0	0	0	0	1	-360	360	0.4300	0.4342	-0.4293	-0.4339;
	33	34	0.00676859504	0.00280991736	0	9900	0	0	0	0	1	-360	360	0.4153	0.4197	-0.4122	-0.4184;
	34	35	0.00526446281	0.00218181818	0	9900	0	0	0	0	1	-360	360	0.2919	0.2959	-0.2907	-0.2955;
	35	36	0.00150413223	0.000619834711	0	9900	0	0	0	0	1	-360	360	0.0353	0.0360	-0.0353	-0.0360;
	26	37	0.00300826446	0.00124793388	0	9900	0	0	0	0	1	-360	360	0.0560	0.0571	-0.0560	-0.0571;
	27	38	0.00828099174	0.00343801653	0	9900	0	0	0	0	1	-360	360	0.0561	0.0572	-0.0560	-0.0571;
	29	39	0.00451239669	0.0018677686	0	9900	0	0	0	0	1	-360	360	0.0560	0.0571	-0.0560	-0.0571;
	32	40	0.00376033058	0.00156198347	0	9900	0	0	0	0	1	-360	360	0.1061	0.1081	-0.1060	-0.1080;
	40	41	0.00828099174	0.00343801653	0	9900	0	0	0	0	1	-360	360	0.0707	0.0720	-0.0706	-0.0720;
	41	42	0.00225619835	0.000933884298	0	9900	0	0	0	0	1	-360	360	0.0353	0.0360	-0.0353	-0.0360;
	41	43	0.00376033058	0.00156198347	0	9900	0	0	0	0	1	-360	360	0.0353	0.0360	-0.0353	-0.0360;
	34	44	0.00828099174	0.00343801653	0	9900	0	0	0	0	1	-360	360	0.1203	0.1225	-0.1200	-0.1223;
	44	45	0.00752892562	0.00312396694	0	9900	0	0	0	0	1	-360	360	0.0848	0.0863	-0.0846	-0.0863;
	45	46	0.00752892562	0.00312396694	0	9900	0	0	0	0	1	-360	360	0.0493	0.0503	-0.0493	-0.0503;
	46	47	0.00451239669	0.0018677686	0	9900	0	0	0	0	1	-360	360	0.0140	0.0143	-0.0140	-0.0143;
	35	48	0.00526446281	0.00218181818	0	9900	0	0	0	0	1	-360	360	0.2554	0.2595	-0.2545	-0.2591;
	48	49	0.00150413223	0.000619834711	0	9900	0	0	0	0	1	-360	360	0.1064	0.1085	-0.1064	-0.1085;
	49	50	0.00300826446	0.00124793388	0	9900	0	0	0	0	1	-360	360	0.0924	0.0942	-0.0923	-0.0942;
	50	51	0.00376033058	0.00156198347	0	9900	0	0	0	0	1	-360	360	0.0560	0.0571	-0.0560	-0.0571;
	48	52	0.0112892562	0.00468595041	0	9900	0	0	0	0	1	-360	360	0.1481	0.1506	-0.1474	-0.1503;
	52	53	0.00376033058	0.00156198347	0	9900	0	0	0	0	1	-360	360	0.0914	0.0932	-0.0913	-0.0931;
	53	54	0.00451239669	0.0018677686	0	9900	0	0	0	0	1	-360	360	0.0560	0.0571	-0.0560	-0.0571;
	52	55	0.00451239669	0.0018677686	0	9900	0	0	0	0	1	-360	360	0.0560	0.0571	-0.0560	-0.0571;
	49	56	0.00451239669	0.0018677686	0	9900	0	0	0	0	1	-360	360	0.0140	0.0143	-0.0140	-0.0143;
	9	57	0.00225619835	0.000933884298	0	9900	0	0	0	0	1	-360	360	0.7141	0.7162	-0.7113	-0.7151;
	57	58	0.00676859504	0.00280991736	0	9900	0	0	0	0	1	-360	360	0.6553	0.6580	-0.6483	-0.6550;
	58	59	0.00150413223	0.000619834711	0	9900	0	0	0	0	1	-360	360	0.0560	0.0571	-0.0560	-0.0571;
	58	60	0.00451239669	0.0018677686	0	9900	0	0	0	0	1	-360	360	0.5923	0.5979	-0.5883	-0.5963;
	60	61	0.00601652893	0.00249586777	0	9900	0	0	0	0	1	-360	360	0.1123	0.1144	-0.1121	-0.1143;
	61	62	0.00828099174	0.00342975207	0	9900	0	0	0	0	1	-360	360	0.0561	0.0572	-0.0560	-0.0571;
	60	63	0.00150413223	0.000619834711	0	9900	0	0	0	0	1	-360	360	0.4201	0.4248	-0.4194	-0.4245;
	63	64	0.00601652893	0.00249586777	0	9900	0	0	0	0	1	-360	360	0.4054	0.4102	-0.4030	-0.4092;
	64	65	0.00150413223	0.000619834711	0	9900	0	0	0	0	1	-360	360	0.0700	0.0714	-0.0700	-0.0714;
	65	66	0.00150413223	0.000619834711	0	9900	0	0	0	0	1	-360	360	0.0560	0.0571	-0.0560	-0.0571;
	64	67	0.00376033058	0.00156198347	0	9900	0	0	0	0	1	-360	360	0.3329	0.3378	-0.3319	-0.3373;
	67	68	0.00752066116	0.00312396694	0	9900	0	0	0	0	1	-360	360	0.2406	0.2442	-0.2395	-0.2438;
	68	69	0.00902479339	0.00374380165	0	9900	0	0	0	0	1	-360	360	0.1479	0.1505	-0.1474	-0.1503;
	69	70	0.00376033058	0.00156198347	0	9900	0	0	0	0	1	-360	360	0.0914	0.0932	-0.0913	-0.0931;
	70	71	0.00451239669	0.0018677686	0	9900	0	0	0	0	1	-360	360	0.0353	0.0360	-0.0353	-0.0360;
	67	72	0.00150413223	0.000619834711	0	9900	0	0	0	0	1	-360	360	0.0560	0.0571	-0.0560	-0.0571;
	68	73	0.00978512397	0.00405785124	0	9900	0	0	0	0	1	-360	360	0.0915	0.0932	-0.0913	-0.0931;
	73	74	0.00225619835	0.000933884298	0	9900	0	0	0	0	1	-360	360	0.0560	0.0571	-0.0560	-0.0571;
	73	75	0.00828099174	0.00343801653	0	9900	0	0	0	0	1	-360	360	0.0353	0.0360	-0.0353	-0.0360;
	70	76	0.00451239669	0.0018677686	0	9900	0	0	0	0	1	-360	360	0.0560	0.0571	-0.0560	-0.0571;
	65	77	0.000752066116	0.000305785124	0	9900	0	0	0	0	1	-360	360	0.0140	0.0143	-0.0140	-0.0143;
	10	78	0.00526446281	0.00218181818	0	9900	0	0	0	0	1	-360	360	0.0560	0.0571	-0.0560	-0.0571;
	67	79	0.00451239669	0.0018677686	0	9900	0	0	0	0	1	-360	360	0.0353	0.0360	-0.0353	-0.0360;
	12	80	0.00601652893	0.00249586777	0	9900	0	0	0	0	1	-360	360	0.1618	0.1648	-0.1614	-0.1646;
	80	81	0.00300826446	0.00124793388	0	9900	0	0	0	0	1	-360	360	0.1054	0.1075	-0.1053	-0.1074;
	81	82	0.000752066116	0.000305785124	0	9900	0	0	0	0	1	-360	360	0.0560	0.0571	-0.0560	-0.0571;
	81	83	0.00902479339	0.00374380165	0	9900	0	0	0	0	1	-360	360	0.0493	0.0503	-0.0493	-0.0503;
	83	84	0.00828099174	0.00343801653	0	9900	0	0	0	0	1	-360	360	0.0140	0.0143	-0.0140	-0.0143;
	13	85	0.00676859504	0.00280991736	0	9900	0	0	0	0	1	-360	360	0.0353	0.0360	-0.0353	-0.0360;
];
